*----------------------------------------------------------------------
* SPICE Model generated by Murata Manufacturing Co., Ltd.
* Copyright(C) Murata Manufacturing Co., Ltd.
* Description :2012M(0805)/SL(-55to125[deg])/2.20e-02[uF]/10[V]
* Murata P/N :GRM2161X1A223JA01
* Property : C = 2.20e-02[uF]
* Data Generated on Jan 31, 2023
*----------------------------------------------------------------------
* Applicable Conditions:
*   Frequency Range = 1000[kHz]-6[GHz]
*   Temperature = 25 degC
*   DC Bias Voltage = 0V
*   Small Signal Operation
*----------------------------------------------------------------------
.SUBCKT GRM2161X1A223JA01 Port1 Port2
C01 Port1 N01 2.24e-08
R01 Port1 N01 1.00e+10
L02 N01 N02 2.52e-11
R03 N02 N03 8.11e-03
L04 N03 N04 4.71e-11
R04 N03 N04 2.85e-01
L05 N04 N05 4.41e-11
R05 N04 N05 4.45e-03
C06 N05 N06 7.04e-08
L06 N05 N06 2.85e-11
R06 N05 N06 8.77e-02
C07 N06 N07 1.80e-08
L07 N06 N07 3.60e-11
R07 N06 N07 1.44e-01
C08 N07 N08 4.94e-09
L08 N07 N08 3.13e-11
R08 N07 N08 7.75e-02
C09 N08 N09 3.39e-12
L09 N08 N09 1.03e-10
R09 N08 N09 1.14e+02
C10 N09 Port2 1.40e-12
L10 N09 Port2 2.24e-10
R10 N09 Port2 1.00e+05
.ENDS GRM2161X1A223JA01
*----------------------------------------------------------------------
* SPICE Model generated by Murata Manufacturing Co., Ltd.
* Copyright(C) Murata Manufacturing Co., Ltd.
* Description :2012M(0805)/SL(-55to125[deg])/3.30e-02[uF]/10[V]
* Murata P/N :GRM2161X1A333JA01
* Property : C = 3.30e-02[uF]
* Data Generated on Jan 31, 2023
*----------------------------------------------------------------------
* Applicable Conditions:
*   Frequency Range = 1000[kHz]-6[GHz]
*   Temperature = 25 degC
*   DC Bias Voltage = 0V
*   Small Signal Operation
*----------------------------------------------------------------------
.SUBCKT GRM2161X1A333JA01 Port1 Port2
C01 Port1 N01 3.34e-08
R01 Port1 N01 1.00e+10
L02 N01 N02 8.91e-11
R03 N02 N03 6.21e-03
L04 N03 N04 9.31e-12
R04 N03 N04 3.28e-01
L05 N04 N05 7.39e-11
R05 N04 N05 2.07e-01
L06 N05 N06 6.05e-11
R06 N05 N06 6.10e-03
C07 N06 N07 1.45e-07
L07 N06 N07 2.30e-11
R07 N06 N07 7.52e-02
C08 N07 N08 2.26e-08
L08 N07 N08 5.91e-11
R08 N07 N08 1.51e-01
C09 N08 N09 2.25e-08
L09 N08 N09 1.70e-11
R09 N08 N09 6.03e-02
C10 N09 N10 8.65e-12
L10 N09 N10 4.05e-11
R10 N09 N10 1.39e+01
C11 N10 Port2 2.13e-12
L11 N10 Port2 1.54e-10
R11 N10 Port2 1.00e+05
.ENDS GRM2161X1A333JA01
*----------------------------------------------------------------------
* SPICE Model generated by Murata Manufacturing Co., Ltd.
* Copyright(C) Murata Manufacturing Co., Ltd.
* Description :2012M(0805)/SL(-55to125[deg])/1.00e-02[uF]/50[V]
* Murata P/N :GRM2161X1H103JA01
* Property : C = 1.00e-02[uF]
* Data Generated on Jan 31, 2023
*----------------------------------------------------------------------
* Applicable Conditions:
*   Frequency Range = 1000[kHz]-6[GHz]
*   Temperature = 25 degC
*   DC Bias Voltage = 0V
*   Small Signal Operation
*----------------------------------------------------------------------
.SUBCKT GRM2161X1H103JA01 Port1 Port2
C01 Port1 N01 1.00e-08
R01 Port1 N01 1.00e+10
L02 N01 N02 6.31e-11
R03 N02 N03 9.69e-03
L04 N03 N04 1.29e-11
R04 N03 N04 3.14e-01
L05 N04 N05 9.42e-11
R05 N04 N05 2.11e-01
L06 N05 N06 1.07e-10
R06 N05 N06 6.62e-03
C07 N06 N07 4.56e-08
L07 N06 N07 1.58e-11
R07 N06 N07 8.43e-02
C08 N07 N08 1.13e-08
L08 N07 N08 2.21e-11
R08 N07 N08 1.30e-01
C09 N08 N09 9.87e-12
L09 N08 N09 3.55e-11
R09 N08 N09 9.87e+00
C10 N09 Port2 1.16e-12
L10 N09 Port2 2.58e-10
R10 N09 Port2 1.00e+05
.ENDS GRM2161X1H103JA01
*----------------------------------------------------------------------
* SPICE Model generated by Murata Manufacturing Co., Ltd.
* Copyright(C) Murata Manufacturing Co., Ltd.
* Description :2012M(0805)/SL(-55to125[deg])/1.20e-02[uF]/50[V]
* Murata P/N :GRM2161X1H123JA01
* Property : C = 1.20e-02[uF]
* Data Generated on Jan 31, 2023
*----------------------------------------------------------------------
* Applicable Conditions:
*   Frequency Range = 1000[kHz]-6[GHz]
*   Temperature = 25 degC
*   DC Bias Voltage = 0V
*   Small Signal Operation
*----------------------------------------------------------------------
.SUBCKT GRM2161X1H123JA01 Port1 Port2
C01 Port1 N01 1.18e-08
R01 Port1 N01 1.00e+10
L02 N01 N02 1.00e-12
R03 N02 N03 7.18e-03
L04 N03 N04 1.80e-11
R04 N03 N04 5.01e-01
L05 N04 N05 9.37e-11
R05 N04 N05 2.17e-01
L06 N05 N06 1.74e-10
R06 N05 N06 6.02e-03
C07 N06 N07 4.57e-08
L07 N06 N07 2.20e-11
R07 N06 N07 1.01e-01
C08 N07 N08 1.24e-08
L08 N07 N08 2.73e-11
R08 N07 N08 1.60e-01
C09 N08 N09 4.63e-12
L09 N08 N09 7.58e-11
R09 N08 N09 3.34e+01
C10 N09 Port2 1.19e-12
L10 N09 Port2 2.72e-10
R10 N09 Port2 1.00e+05
.ENDS GRM2161X1H123JA01
*----------------------------------------------------------------------
* SPICE Model generated by Murata Manufacturing Co., Ltd.
* Copyright(C) Murata Manufacturing Co., Ltd.
* Description :2012M(0805)/SL(-55to125[deg])/1.50e-02[uF]/50[V]
* Murata P/N :GRM2161X1H153JA01
* Property : C = 1.50e-02[uF]
* Data Generated on Jan 31, 2023
*----------------------------------------------------------------------
* Applicable Conditions:
*   Frequency Range = 1000[kHz]-6[GHz]
*   Temperature = 25 degC
*   DC Bias Voltage = 0V
*   Small Signal Operation
*----------------------------------------------------------------------
.SUBCKT GRM2161X1H153JA01 Port1 Port2
C01 Port1 N01 1.50e-08
R01 Port1 N01 1.00e+10
L02 N01 N02 1.00e-12
R03 N02 N03 7.24e-03
L04 N03 N04 1.81e-11
R04 N03 N04 6.80e-01
L05 N04 N05 1.25e-10
R05 N04 N05 1.79e-01
L06 N05 N06 9.53e-11
R06 N05 N06 4.86e-03
C07 N06 N07 5.23e-08
L07 N06 N07 2.56e-11
R07 N06 N07 1.01e-01
C08 N07 N08 2.17e-08
L08 N07 N08 2.23e-11
R08 N07 N08 1.50e-01
C09 N08 N09 2.43e-11
L09 N08 N09 1.45e-11
R09 N08 N09 6.36e+00
C10 N09 Port2 8.53e-13
L10 N09 Port2 3.12e-10
R10 N09 Port2 1.00e+05
.ENDS GRM2161X1H153JA01
*----------------------------------------------------------------------
* SPICE Model generated by Murata Manufacturing Co., Ltd.
* Copyright(C) Murata Manufacturing Co., Ltd.
* Description :2012M(0805)/SL(-55to125[deg])/1.80e-02[uF]/50[V]
* Murata P/N :GRM2161X1H183JA01
* Property : C = 1.80e-02[uF]
* Data Generated on Jan 31, 2023
*----------------------------------------------------------------------
* Applicable Conditions:
*   Frequency Range = 1000[kHz]-6[GHz]
*   Temperature = 25 degC
*   DC Bias Voltage = 0V
*   Small Signal Operation
*----------------------------------------------------------------------
.SUBCKT GRM2161X1H183JA01 Port1 Port2
C01 Port1 N01 1.81e-08
R01 Port1 N01 1.00e+10
L02 N01 N02 3.16e-12
R03 N02 N03 8.28e-03
L04 N03 N04 2.32e-11
R04 N03 N04 5.84e-01
L05 N04 N05 1.11e-10
R05 N04 N05 1.99e-01
L06 N05 N06 6.34e-11
R06 N05 N06 4.50e-03
C07 N06 N07 7.53e-08
L07 N06 N07 2.28e-11
R07 N06 N07 8.68e-02
C08 N07 N08 2.35e-08
L08 N07 N08 2.91e-11
R08 N07 N08 1.30e-01
C09 N08 N09 2.49e-11
L09 N08 N09 1.17e-11
R09 N08 N09 3.83e+00
C10 N09 Port2 8.86e-13
L10 N09 Port2 2.68e-10
R10 N09 Port2 1.00e+05
.ENDS GRM2161X1H183JA01
*----------------------------------------------------------------------
* SPICE Model generated by Murata Manufacturing Co., Ltd.
* Copyright(C) Murata Manufacturing Co., Ltd.
* Description :2012M(0805)/CH(-55to125[deg])/1.20e-03[uF]/50[V]
* Murata P/N :GRM2162C1H122JA01
* Property : C = 1.20e-03[uF]
* Data Generated on Jan 31, 2023
*----------------------------------------------------------------------
* Applicable Conditions:
*   Frequency Range = 1000[kHz]-6[GHz]
*   Temperature = 25 degC
*   DC Bias Voltage = 0V
*   Small Signal Operation
*----------------------------------------------------------------------
.SUBCKT GRM2162C1H122JA01 Port1 Port2
C01 Port1 N01 1.16e-09
R01 Port1 N01 1.00e+10
L02 N01 N02 1.41e-10
R03 N02 N03 1.26e-02
L04 N03 N04 2.13e-11
R04 N03 N04 3.54e-01
L05 N04 N05 5.72e-11
R05 N04 N05 2.50e-02
L06 N05 N06 1.35e-10
R06 N05 N06 1.04e-02
C07 N06 N07 5.61e-09
L07 N06 N07 1.11e-11
R07 N06 N07 1.58e-01
C08 N07 N08 7.25e-10
L08 N07 N08 2.73e-11
R08 N07 N08 3.96e-01
C09 N08 Port2 1.45e-12
L09 N08 Port2 3.15e-10
R09 N08 Port2 2.99e+02
.ENDS GRM2162C1H122JA01
*----------------------------------------------------------------------
* SPICE Model generated by Murata Manufacturing Co., Ltd.
* Copyright(C) Murata Manufacturing Co., Ltd.
* Description :2012M(0805)/CH(-55to125[deg])/1.50e-03[uF]/50[V]
* Murata P/N :GRM2162C1H152JA01
* Property : C = 1.50e-03[uF]
* Data Generated on Jan 31, 2023
*----------------------------------------------------------------------
* Applicable Conditions:
*   Frequency Range = 1000[kHz]-6[GHz]
*   Temperature = 25 degC
*   DC Bias Voltage = 0V
*   Small Signal Operation
*----------------------------------------------------------------------
.SUBCKT GRM2162C1H152JA01 Port1 Port2
C01 Port1 N01 1.48e-09
R01 Port1 N01 1.00e+10
L02 N01 N02 1.47e-10
R03 N02 N03 1.55e-02
L04 N03 N04 8.91e-11
R04 N03 N04 2.48e-02
C05 N04 N05 7.54e-09
L05 N04 N05 1.26e-11
R05 N04 N05 1.61e-01
C06 N05 N06 1.30e-09
L06 N05 N06 2.39e-11
R06 N05 N06 3.63e-01
C07 N06 N07 5.86e-12
L07 N06 N07 5.81e-11
R07 N06 N07 6.14e-01
C08 N07 Port2 9.19e-13
L08 N07 Port2 2.80e-10
R08 N07 Port2 1.00e+05
.ENDS GRM2162C1H152JA01
*----------------------------------------------------------------------
* SPICE Model generated by Murata Manufacturing Co., Ltd.
* Copyright(C) Murata Manufacturing Co., Ltd.
* Description :2012M(0805)/CH(-55to125[deg])/1.80e-03[uF]/50[V]
* Murata P/N :GRM2162C1H182JA01
* Property : C = 1.80e-03[uF]
* Data Generated on Jan 31, 2023
*----------------------------------------------------------------------
* Applicable Conditions:
*   Frequency Range = 1000[kHz]-6[GHz]
*   Temperature = 25 degC
*   DC Bias Voltage = 0V
*   Small Signal Operation
*----------------------------------------------------------------------
.SUBCKT GRM2162C1H182JA01 Port1 Port2
C01 Port1 N01 1.76e-09
R01 Port1 N01 1.00e+10
L02 N01 N02 1.48e-10
R03 N02 N03 7.52e-03
L04 N03 N04 4.74e-11
R04 N03 N04 4.02e+00
L05 N04 N05 3.93e-11
R05 N04 N05 4.13e-01
L06 N05 N06 6.03e-11
R06 N05 N06 2.13e-02
L07 N06 N07 1.27e-10
R07 N06 N07 6.43e-03
C08 N07 N08 7.10e-09
L08 N07 N08 1.75e-11
R08 N07 N08 1.87e-01
C09 N08 N09 1.46e-09
L09 N08 N09 2.93e-11
R09 N08 N09 4.49e-01
C10 N09 Port2 1.09e-12
L10 N09 Port2 2.26e-10
R10 N09 Port2 1.00e+05
.ENDS GRM2162C1H182JA01
*----------------------------------------------------------------------
* SPICE Model generated by Murata Manufacturing Co., Ltd.
* Copyright(C) Murata Manufacturing Co., Ltd.
* Description :2012M(0805)/CH(-55to125[deg])/2.20e-03[uF]/50[V]
* Murata P/N :GRM2162C1H222JA01
* Property : C = 2.20e-03[uF]
* Data Generated on Jan 31, 2023
*----------------------------------------------------------------------
* Applicable Conditions:
*   Frequency Range = 1000[kHz]-6[GHz]
*   Temperature = 25 degC
*   DC Bias Voltage = 0V
*   Small Signal Operation
*----------------------------------------------------------------------
.SUBCKT GRM2162C1H222JA01 Port1 Port2
C01 Port1 N01 2.17e-09
R01 Port1 N01 1.00e+10
L02 N01 N02 1.15e-10
R03 N02 N03 1.08e-02
L04 N03 N04 1.04e-10
R04 N03 N04 1.83e-02
C05 N04 N05 1.13e-08
L05 N04 N05 1.95e-11
R05 N04 N05 2.01e-01
C06 N05 N06 2.13e-09
L06 N05 N06 4.11e-11
R06 N05 N06 4.68e-01
C07 N06 N07 5.99e-10
L07 N06 N07 3.52e-11
R07 N06 N07 2.40e-01
C08 N07 N08 1.00e-11
L08 N07 N08 4.11e-11
R08 N07 N08 6.31e-01
C09 N08 Port2 8.54e-13
L09 N08 Port2 2.94e-10
R09 N08 Port2 2.00e+05
.ENDS GRM2162C1H222JA01
*----------------------------------------------------------------------
* SPICE Model generated by Murata Manufacturing Co., Ltd.
* Copyright(C) Murata Manufacturing Co., Ltd.
* Description :2012M(0805)/CH(-55to125[deg])/2.70e-03[uF]/50[V]
* Murata P/N :GRM2162C1H272JA01
* Property : C = 2.70e-03[uF]
* Data Generated on Jan 31, 2023
*----------------------------------------------------------------------
* Applicable Conditions:
*   Frequency Range = 1000[kHz]-6[GHz]
*   Temperature = 25 degC
*   DC Bias Voltage = 0V
*   Small Signal Operation
*----------------------------------------------------------------------
.SUBCKT GRM2162C1H272JA01 Port1 Port2
C01 Port1 N01 2.68e-09
R01 Port1 N01 1.00e+10
L02 N01 N02 2.05e-11
R03 N02 N03 6.76e-03
L04 N03 N04 6.96e-11
R04 N03 N04 2.67e-01
L05 N04 N05 5.71e-11
R05 N04 N05 1.36e-02
L06 N05 N06 1.54e-10
R06 N05 N06 5.13e-03
C07 N06 N07 1.62e-08
L07 N06 N07 1.73e-11
R07 N06 N07 2.45e-01
C08 N07 N08 3.46e-09
L08 N07 N08 3.31e-11
R08 N07 N08 4.98e-01
C09 N08 N09 1.09e-12
L09 N08 N09 3.04e-10
R09 N08 N09 1.00e+05
C10 N09 Port2 4.21e-12
L10 N09 Port2 7.26e-11
R10 N09 Port2 1.74e+01
.ENDS GRM2162C1H272JA01
*----------------------------------------------------------------------
* SPICE Model generated by Murata Manufacturing Co., Ltd.
* Copyright(C) Murata Manufacturing Co., Ltd.
* Description :2012M(0805)/CH(-55to125[deg])/3.30e-03[uF]/50[V]
* Murata P/N :GRM2162C1H332JA01
* Property : C = 3.30e-03[uF]
* Data Generated on Jan 31, 2023
*----------------------------------------------------------------------
* Applicable Conditions:
*   Frequency Range = 1000[kHz]-6[GHz]
*   Temperature = 25 degC
*   DC Bias Voltage = 0V
*   Small Signal Operation
*----------------------------------------------------------------------
.SUBCKT GRM2162C1H332JA01 Port1 Port2
C01 Port1 N01 3.25e-09
R01 Port1 N01 1.00e+10
L02 N01 N02 2.32e-10
R03 N02 N03 1.20e-02
L04 N03 N04 7.89e-11
R04 N03 N04 4.72e-01
L05 N04 N05 6.29e-11
R05 N04 N05 1.11e-02
C06 N05 N06 1.43e-08
L06 N05 N06 2.65e-11
R06 N05 N06 2.73e-01
C07 N06 N07 4.19e-09
L07 N06 N07 3.80e-11
R07 N06 N07 4.18e-01
C08 N07 N08 2.40e-09
L08 N07 N08 2.34e-11
R08 N07 N08 1.70e-01
C09 N08 N09 3.85e-11
L09 N08 N09 1.22e-11
R09 N08 N09 3.46e-01
C10 N09 Port2 2.17e-12
L10 N09 Port2 1.12e-10
R10 N09 Port2 1.00e+05
.ENDS GRM2162C1H332JA01
*----------------------------------------------------------------------
* SPICE Model generated by Murata Manufacturing Co., Ltd.
* Copyright(C) Murata Manufacturing Co., Ltd.
* Description :2012M(0805)/CH(-55to125[deg])/3.90e-03[uF]/50[V]
* Murata P/N :GRM2162C1H392JA01
* Property : C = 3.90e-03[uF]
* Data Generated on Jan 31, 2023
*----------------------------------------------------------------------
* Applicable Conditions:
*   Frequency Range = 1000[kHz]-6[GHz]
*   Temperature = 25 degC
*   DC Bias Voltage = 0V
*   Small Signal Operation
*----------------------------------------------------------------------
.SUBCKT GRM2162C1H392JA01 Port1 Port2
C01 Port1 N01 3.87e-09
R01 Port1 N01 1.00e+10
L02 N01 N02 2.36e-10
R03 N02 N03 6.64e-03
L04 N03 N04 5.15e-11
R04 N03 N04 2.98e+00
L05 N04 N05 5.43e-11
R05 N04 N05 2.45e-01
L06 N05 N06 7.50e-11
R06 N05 N06 1.55e-02
L07 N06 N07 3.46e-10
R07 N06 N07 4.98e-03
C08 N07 N08 2.08e-08
L08 N07 N08 1.47e-11
R08 N07 N08 1.73e-01
C09 N08 N09 4.16e-09
L09 N08 N09 2.67e-11
R09 N08 N09 3.06e-01
C10 N09 Port2 2.48e-12
L10 N09 Port2 1.11e-10
R10 N09 Port2 1.00e+05
.ENDS GRM2162C1H392JA01
*----------------------------------------------------------------------
* SPICE Model generated by Murata Manufacturing Co., Ltd.
* Copyright(C) Murata Manufacturing Co., Ltd.
* Description :2012M(0805)/CH(-55to125[deg])/4.70e-03[uF]/50[V]
* Murata P/N :GRM2162C1H472JA01
* Property : C = 4.70e-03[uF]
* Data Generated on Jan 31, 2023
*----------------------------------------------------------------------
* Applicable Conditions:
*   Frequency Range = 1000[kHz]-6[GHz]
*   Temperature = 25 degC
*   DC Bias Voltage = 0V
*   Small Signal Operation
*----------------------------------------------------------------------
.SUBCKT GRM2162C1H472JA01 Port1 Port2
C01 Port1 N01 4.67e-09
R01 Port1 N01 1.00e+10
L02 N01 N02 1.20e-10
R03 N02 N03 1.13e-02
L04 N03 N04 6.56e-11
R04 N03 N04 1.44e-02
C05 N04 N05 1.77e-08
L05 N04 N05 2.33e-11
R05 N04 N05 1.79e-01
C06 N05 N06 4.75e-09
L06 N05 N06 3.17e-11
R06 N05 N06 3.21e-01
C07 N06 N07 1.76e-09
L07 N06 N07 2.46e-11
R07 N06 N07 1.24e-01
C08 N07 N08 7.19e-12
L08 N07 N08 5.25e-11
R08 N07 N08 5.21e-01
C09 N08 Port2 9.13e-13
L09 N08 Port2 2.21e-10
R09 N08 Port2 1.00e+05
.ENDS GRM2162C1H472JA01
*----------------------------------------------------------------------
* SPICE Model generated by Murata Manufacturing Co., Ltd.
* Copyright(C) Murata Manufacturing Co., Ltd.
* Description :2012M(0805)/CH(-55to125[deg])/1.00e-04[uF]/100[V]
* Murata P/N :GRM2162C2A101JA01
* Property : C = 1.00e-04[uF]
* Data Generated on Jan 31, 2023
*----------------------------------------------------------------------
* Applicable Conditions:
*   Frequency Range = 100[MHz]-9[GHz]
*   Temperature = 25 degC
*   DC Bias Voltage = 0V
*   Small Signal Operation
*----------------------------------------------------------------------
.SUBCKT GRM2162C2A101JA01 Port1 Port2
C01 Port1 N01 1.00e-10
R01 Port1 N01 1.00e+10
L02 N01 N02 7.38e-11
R03 N02 N03 1.10e-01
L04 N03 N04 1.44e-11
R04 N03 N04 3.14e-01
C05 N04 N05 5.91e-10
L05 N04 N05 9.55e-12
R05 N04 N05 7.15e-01
C06 N05 N06 7.24e-11
L06 N05 N06 2.37e-11
R06 N05 N06 1.71e+00
C07 N06 N07 2.65e-12
L07 N06 N07 7.17e-11
R07 N06 N07 9.05e+00
C08 N07 Port2 6.39e-13
L08 N07 Port2 2.96e-10
R08 N07 Port2 1.00e+05
.ENDS GRM2162C2A101JA01
*----------------------------------------------------------------------
* SPICE Model generated by Murata Manufacturing Co., Ltd.
* Copyright(C) Murata Manufacturing Co., Ltd.
* Description :2012M(0805)/CH(-55to125[deg])/1.00e-03[uF]/100[V]
* Murata P/N :GRM2162C2A102JA01
* Property : C = 1.00e-03[uF]
* Data Generated on Jan 31, 2023
*----------------------------------------------------------------------
* Applicable Conditions:
*   Frequency Range = 1000[kHz]-6[GHz]
*   Temperature = 25 degC
*   DC Bias Voltage = 0V
*   Small Signal Operation
*----------------------------------------------------------------------
.SUBCKT GRM2162C2A102JA01 Port1 Port2
C01 Port1 N01 9.81e-10
R01 Port1 N01 1.00e+10
L02 N01 N02 3.16e-11
R03 N02 N03 2.28e-02
C04 N03 N04 1.24e-08
L04 N03 N04 8.80e-11
R04 N03 N04 2.65e-02
C05 N04 N05 3.72e-09
L05 N04 N05 1.32e-11
R05 N04 N05 1.37e-01
C06 N05 N06 5.49e-10
L06 N05 N06 2.53e-11
R06 N05 N06 3.34e-01
C07 N06 N07 4.72e-12
L07 N06 N07 5.28e-11
R07 N06 N07 8.20e-01
C08 N07 Port2 5.35e-13
L08 N07 Port2 4.19e-10
R08 N07 Port2 9.12e+04
.ENDS GRM2162C2A102JA01
*----------------------------------------------------------------------
* SPICE Model generated by Murata Manufacturing Co., Ltd.
* Copyright(C) Murata Manufacturing Co., Ltd.
* Description :2012M(0805)/CH(-55to125[deg])/1.20e-04[uF]/100[V]
* Murata P/N :GRM2162C2A121JA01
* Property : C = 1.20e-04[uF]
* Data Generated on Jan 31, 2023
*----------------------------------------------------------------------
* Applicable Conditions:
*   Frequency Range = 100[MHz]-9[GHz]
*   Temperature = 25 degC
*   DC Bias Voltage = 0V
*   Small Signal Operation
*----------------------------------------------------------------------
.SUBCKT GRM2162C2A121JA01 Port1 Port2
C01 Port1 N01 1.20e-10
R01 Port1 N01 1.00e+10
L02 N01 N02 9.76e-11
R03 N02 N03 9.81e-02
L04 N03 N04 1.09e-11
R04 N03 N04 7.43e-02
C05 N04 N05 4.44e-10
L05 N04 N05 1.55e-11
R05 N04 N05 1.04e+00
C06 N05 N06 9.74e-11
L06 N05 N06 2.16e-11
R06 N05 N06 1.95e+00
C07 N06 Port2 1.53e-12
L07 N06 Port2 2.93e-10
R07 N06 Port2 2.42e+02
.ENDS GRM2162C2A121JA01
*----------------------------------------------------------------------
* SPICE Model generated by Murata Manufacturing Co., Ltd.
* Copyright(C) Murata Manufacturing Co., Ltd.
* Description :2012M(0805)/CH(-55to125[deg])/1.20e-03[uF]/100[V]
* Murata P/N :GRM2162C2A122JA01
* Property : C = 1.20e-03[uF]
* Data Generated on Jan 31, 2023
*----------------------------------------------------------------------
* Applicable Conditions:
*   Frequency Range = 1000[kHz]-6[GHz]
*   Temperature = 25 degC
*   DC Bias Voltage = 0V
*   Small Signal Operation
*----------------------------------------------------------------------
.SUBCKT GRM2162C2A122JA01 Port1 Port2
C01 Port1 N01 1.16e-09
R01 Port1 N01 1.00e+10
L02 N01 N02 1.41e-10
R03 N02 N03 1.26e-02
L04 N03 N04 2.13e-11
R04 N03 N04 3.54e-01
L05 N04 N05 5.72e-11
R05 N04 N05 2.50e-02
L06 N05 N06 1.35e-10
R06 N05 N06 1.04e-02
C07 N06 N07 5.61e-09
L07 N06 N07 1.11e-11
R07 N06 N07 1.58e-01
C08 N07 N08 7.25e-10
L08 N07 N08 2.73e-11
R08 N07 N08 3.96e-01
C09 N08 Port2 1.45e-12
L09 N08 Port2 3.15e-10
R09 N08 Port2 2.99e+02
.ENDS GRM2162C2A122JA01
*----------------------------------------------------------------------
* SPICE Model generated by Murata Manufacturing Co., Ltd.
* Copyright(C) Murata Manufacturing Co., Ltd.
* Description :2012M(0805)/CH(-55to125[deg])/1.50e-04[uF]/100[V]
* Murata P/N :GRM2162C2A151JA01
* Property : C = 1.50e-04[uF]
* Data Generated on Jan 31, 2023
*----------------------------------------------------------------------
* Applicable Conditions:
*   Frequency Range = 100[MHz]-9[GHz]
*   Temperature = 25 degC
*   DC Bias Voltage = 0V
*   Small Signal Operation
*----------------------------------------------------------------------
.SUBCKT GRM2162C2A151JA01 Port1 Port2
C01 Port1 N01 1.50e-10
R01 Port1 N01 1.00e+10
L02 N01 N02 1.87e-10
R03 N02 N03 9.34e-02
C04 N03 N04 4.52e-10
L04 N03 N04 1.99e-11
R04 N03 N04 9.70e-01
C05 N04 N05 1.13e-10
L05 N04 N05 2.46e-11
R05 N04 N05 1.75e+00
C06 N05 N06 1.22e-11
L06 N05 N06 3.85e-11
R06 N05 N06 2.18e+00
C07 N06 Port2 1.09e-12
L07 N06 Port2 2.07e-10
R07 N06 Port2 1.00e+05
.ENDS GRM2162C2A151JA01
*----------------------------------------------------------------------
* SPICE Model generated by Murata Manufacturing Co., Ltd.
* Copyright(C) Murata Manufacturing Co., Ltd.
* Description :2012M(0805)/CH(-55to125[deg])/1.50e-03[uF]/100[V]
* Murata P/N :GRM2162C2A152JA01
* Property : C = 1.50e-03[uF]
* Data Generated on Jan 31, 2023
*----------------------------------------------------------------------
* Applicable Conditions:
*   Frequency Range = 1000[kHz]-6[GHz]
*   Temperature = 25 degC
*   DC Bias Voltage = 0V
*   Small Signal Operation
*----------------------------------------------------------------------
.SUBCKT GRM2162C2A152JA01 Port1 Port2
C01 Port1 N01 1.48e-09
R01 Port1 N01 1.00e+10
L02 N01 N02 1.47e-10
R03 N02 N03 1.55e-02
L04 N03 N04 8.91e-11
R04 N03 N04 2.48e-02
C05 N04 N05 7.54e-09
L05 N04 N05 1.26e-11
R05 N04 N05 1.61e-01
C06 N05 N06 1.30e-09
L06 N05 N06 2.39e-11
R06 N05 N06 3.63e-01
C07 N06 N07 5.86e-12
L07 N06 N07 5.81e-11
R07 N06 N07 6.14e-01
C08 N07 Port2 9.19e-13
L08 N07 Port2 2.80e-10
R08 N07 Port2 1.00e+05
.ENDS GRM2162C2A152JA01
*----------------------------------------------------------------------
* SPICE Model generated by Murata Manufacturing Co., Ltd.
* Copyright(C) Murata Manufacturing Co., Ltd.
* Description :2012M(0805)/CH(-55to125[deg])/1.80e-04[uF]/100[V]
* Murata P/N :GRM2162C2A181JA01
* Property : C = 1.80e-04[uF]
* Data Generated on Jan 31, 2023
*----------------------------------------------------------------------
* Applicable Conditions:
*   Frequency Range = 100[MHz]-9[GHz]
*   Temperature = 25 degC
*   DC Bias Voltage = 0V
*   Small Signal Operation
*----------------------------------------------------------------------
.SUBCKT GRM2162C2A181JA01 Port1 Port2
C01 Port1 N01 1.80e-10
R01 Port1 N01 1.00e+10
L02 N01 N02 8.45e-11
R03 N02 N03 9.25e-02
L04 N03 N04 9.25e-11
R04 N03 N04 1.34e+01
C05 N04 N05 7.21e-10
L05 N04 N05 1.42e-11
R05 N04 N05 6.75e-01
C06 N05 N06 1.49e-10
L06 N05 N06 2.12e-11
R06 N05 N06 1.31e+00
C07 N06 Port2 1.71e-12
L07 N06 Port2 2.75e-10
R07 N06 Port2 3.15e+02
.ENDS GRM2162C2A181JA01
*----------------------------------------------------------------------
* SPICE Model generated by Murata Manufacturing Co., Ltd.
* Copyright(C) Murata Manufacturing Co., Ltd.
* Description :2012M(0805)/CH(-55to125[deg])/1.80e-03[uF]/100[V]
* Murata P/N :GRM2162C2A182JA01
* Property : C = 1.80e-03[uF]
* Data Generated on Jan 31, 2023
*----------------------------------------------------------------------
* Applicable Conditions:
*   Frequency Range = 1000[kHz]-6[GHz]
*   Temperature = 25 degC
*   DC Bias Voltage = 0V
*   Small Signal Operation
*----------------------------------------------------------------------
.SUBCKT GRM2162C2A182JA01 Port1 Port2
C01 Port1 N01 1.76e-09
R01 Port1 N01 1.00e+10
L02 N01 N02 1.48e-10
R03 N02 N03 7.52e-03
L04 N03 N04 4.74e-11
R04 N03 N04 4.02e+00
L05 N04 N05 3.93e-11
R05 N04 N05 4.13e-01
L06 N05 N06 6.03e-11
R06 N05 N06 2.13e-02
L07 N06 N07 1.27e-10
R07 N06 N07 6.43e-03
C08 N07 N08 7.10e-09
L08 N07 N08 1.75e-11
R08 N07 N08 1.87e-01
C09 N08 N09 1.46e-09
L09 N08 N09 2.93e-11
R09 N08 N09 4.49e-01
C10 N09 Port2 1.09e-12
L10 N09 Port2 2.26e-10
R10 N09 Port2 1.00e+05
.ENDS GRM2162C2A182JA01
*----------------------------------------------------------------------
* SPICE Model generated by Murata Manufacturing Co., Ltd.
* Copyright(C) Murata Manufacturing Co., Ltd.
* Description :2012M(0805)/CH(-55to125[deg])/2.20e-04[uF]/100[V]
* Murata P/N :GRM2162C2A221JA01
* Property : C = 2.20e-04[uF]
* Data Generated on Jan 31, 2023
*----------------------------------------------------------------------
* Applicable Conditions:
*   Frequency Range = 100[MHz]-9[GHz]
*   Temperature = 25 degC
*   DC Bias Voltage = 0V
*   Small Signal Operation
*----------------------------------------------------------------------
.SUBCKT GRM2162C2A221JA01 Port1 Port2
C01 Port1 N01 2.20e-10
R01 Port1 N01 1.00e+10
L02 N01 N02 2.79e-11
R03 N02 N03 7.72e-02
C04 N03 N04 5.84e-10
L04 N03 N04 2.45e-11
R04 N03 N04 8.99e-01
C05 N04 N05 1.71e-10
L05 N04 N05 2.79e-11
R05 N04 N05 1.59e+00
C06 N05 N06 3.45e-10
L06 N05 N06 5.95e-12
R06 N05 N06 3.77e-01
C07 N06 N07 7.62e-11
L07 N06 N07 1.40e-11
R07 N06 N07 1.10e+00
C08 N07 N08 2.81e-11
L08 N07 N08 1.64e-11
R08 N07 N08 2.02e+00
C09 N08 Port2 5.26e-13
L09 N08 Port2 3.46e-10
R09 N08 Port2 1.00e+05
.ENDS GRM2162C2A221JA01
*----------------------------------------------------------------------
* SPICE Model generated by Murata Manufacturing Co., Ltd.
* Copyright(C) Murata Manufacturing Co., Ltd.
* Description :2012M(0805)/CH(-55to125[deg])/2.20e-03[uF]/100[V]
* Murata P/N :GRM2162C2A222JA01
* Property : C = 2.20e-03[uF]
* Data Generated on Jan 31, 2023
*----------------------------------------------------------------------
* Applicable Conditions:
*   Frequency Range = 1000[kHz]-6[GHz]
*   Temperature = 25 degC
*   DC Bias Voltage = 0V
*   Small Signal Operation
*----------------------------------------------------------------------
.SUBCKT GRM2162C2A222JA01 Port1 Port2
C01 Port1 N01 2.17e-09
R01 Port1 N01 1.00e+10
L02 N01 N02 1.15e-10
R03 N02 N03 1.08e-02
L04 N03 N04 1.04e-10
R04 N03 N04 1.83e-02
C05 N04 N05 1.13e-08
L05 N04 N05 1.95e-11
R05 N04 N05 2.01e-01
C06 N05 N06 2.13e-09
L06 N05 N06 4.11e-11
R06 N05 N06 4.68e-01
C07 N06 N07 5.99e-10
L07 N06 N07 3.52e-11
R07 N06 N07 2.40e-01
C08 N07 N08 1.00e-11
L08 N07 N08 4.11e-11
R08 N07 N08 6.31e-01
C09 N08 Port2 8.54e-13
L09 N08 Port2 2.94e-10
R09 N08 Port2 2.00e+05
.ENDS GRM2162C2A222JA01
*----------------------------------------------------------------------
* SPICE Model generated by Murata Manufacturing Co., Ltd.
* Copyright(C) Murata Manufacturing Co., Ltd.
* Description :2012M(0805)/CH(-55to125[deg])/2.70e-04[uF]/100[V]
* Murata P/N :GRM2162C2A271JA01
* Property : C = 2.70e-04[uF]
* Data Generated on Jan 31, 2023
*----------------------------------------------------------------------
* Applicable Conditions:
*   Frequency Range = 100[MHz]-9[GHz]
*   Temperature = 25 degC
*   DC Bias Voltage = 0V
*   Small Signal Operation
*----------------------------------------------------------------------
.SUBCKT GRM2162C2A271JA01 Port1 Port2
C01 Port1 N01 2.70e-10
R01 Port1 N01 1.00e+10
L02 N01 N02 5.08e-11
R03 N02 N03 6.90e-02
L04 N03 N04 5.69e-11
R04 N03 N04 1.90e+00
C05 N04 N05 1.04e-09
L05 N04 N05 1.98e-11
R05 N04 N05 9.94e-01
C06 N05 N06 3.04e-10
L06 N05 N06 2.35e-11
R06 N05 N06 1.31e+00
C07 N06 Port2 1.29e-12
L07 N06 Port2 3.02e-10
R07 N06 Port2 3.39e+02
.ENDS GRM2162C2A271JA01
*----------------------------------------------------------------------
* SPICE Model generated by Murata Manufacturing Co., Ltd.
* Copyright(C) Murata Manufacturing Co., Ltd.
* Description :2012M(0805)/CH(-55to125[deg])/2.70e-03[uF]/100[V]
* Murata P/N :GRM2162C2A272JA01
* Property : C = 2.70e-03[uF]
* Data Generated on Jan 31, 2023
*----------------------------------------------------------------------
* Applicable Conditions:
*   Frequency Range = 1000[kHz]-6[GHz]
*   Temperature = 25 degC
*   DC Bias Voltage = 0V
*   Small Signal Operation
*----------------------------------------------------------------------
.SUBCKT GRM2162C2A272JA01 Port1 Port2
C01 Port1 N01 2.68e-09
R01 Port1 N01 1.00e+10
L02 N01 N02 2.05e-11
R03 N02 N03 6.76e-03
L04 N03 N04 6.96e-11
R04 N03 N04 2.67e-01
L05 N04 N05 5.71e-11
R05 N04 N05 1.36e-02
L06 N05 N06 1.54e-10
R06 N05 N06 5.13e-03
C07 N06 N07 1.62e-08
L07 N06 N07 1.73e-11
R07 N06 N07 2.45e-01
C08 N07 N08 3.46e-09
L08 N07 N08 3.31e-11
R08 N07 N08 4.98e-01
C09 N08 N09 1.09e-12
L09 N08 N09 3.04e-10
R09 N08 N09 1.00e+05
C10 N09 Port2 4.21e-12
L10 N09 Port2 7.26e-11
R10 N09 Port2 1.74e+01
.ENDS GRM2162C2A272JA01
*----------------------------------------------------------------------
* SPICE Model generated by Murata Manufacturing Co., Ltd.
* Copyright(C) Murata Manufacturing Co., Ltd.
* Description :2012M(0805)/CH(-55to125[deg])/3.30e-04[uF]/100[V]
* Murata P/N :GRM2162C2A331JA01
* Property : C = 3.30e-04[uF]
* Data Generated on Jan 31, 2023
*----------------------------------------------------------------------
* Applicable Conditions:
*   Frequency Range = 100[MHz]-9[GHz]
*   Temperature = 25 degC
*   DC Bias Voltage = 0V
*   Small Signal Operation
*----------------------------------------------------------------------
.SUBCKT GRM2162C2A331JA01 Port1 Port2
C01 Port1 N01 3.30e-10
R01 Port1 N01 1.00e+10
L02 N01 N02 1.31e-10
R03 N02 N03 7.44e-02
L04 N03 N04 9.16e-12
R04 N03 N04 2.81e-02
C05 N04 N05 7.77e-10
L05 N04 N05 1.54e-11
R05 N04 N05 2.66e-01
C06 N05 N06 1.02e-10
L06 N05 N06 2.86e-11
R06 N05 N06 8.81e-01
C07 N06 N07 3.27e-10
L07 N06 N07 3.01e-12
R07 N06 N07 5.67e-01